data/projects/lehigh2mgs/circuit_control.dss
clear
set defaultbasefrequency=60
new object=circuit.lehigh basekv=115 pu=1.0001 phases=3 bus1=sourcebus angle=30 mvasc3=20000 mvasc1=21000
edit object=vsource.source basekv=115 bus1=sourcebus.1.2.3 pu=1.00 r1=0 x1=0.0001 r0=0 x0=0.0001
new object=vsource.secondsource basekv=4.16 bus1=680.1.2.3 pu=1.00 r1=0 x1=0.0001 r0=0 x0=0.0001
new object=transformer.sub phases=3 windings=2 xhl=0.008 buses=[sourcebus.1.2.3,650.1.2.3] conns=[delta,wye] kvs=[115,4.16] kvas=[5000,5000] %rs=[0.0005,0.0005]
new object=transformer.reg1 phases=1 bank=reg1 xhl=0.01 kvas=[1666,1666] buses=[650.1,rg60.1] kvs=[2.4,2.4] %loadloss=0.01
new object=regcontrol.reg1 transformer=reg1 winding=2 vreg=121 band=2 ptratio=20 ctprim=700 r=3 x=9
new object=transformer.reg2 phases=1 bank=reg1 xhl=0.01 kvas=[1666,1666] buses=[650.2,rg60.2] kvs=[2.4,2.4] %loadloss=0.01
new object=regcontrol.reg2 transformer=reg2 winding=2 vreg=121 band=2 ptratio=20 ctprim=700 r=3 x=9
new object=transformer.reg3 phases=1 bank=reg1 xhl=0.01 kvas=[1666,1666] buses=[650.3,rg60.3] kvs=[2.4,2.4] %loadloss=0.01
new object=regcontrol.reg3 transformer=reg3 winding=2 vreg=121 band=2 ptratio=20 ctprim=700 r=3 x=9
new object=transformer.xfm1 phases=3 windings=2 xhl=2 buses=[633.1.2.3,634.1.2.3] conns=[wye,wye] kvs=[4.16,0.480] kvas=[500,500] %rs=[0.55,0.55] xht=1 xlt=1
new object=linecode.mtx601 nphases=3 basefreq=60 rmatrix=[0.3465|0.1560,0.3375|0.1580,0.1535,0.3414] xmatrix=[1.0179|0.5017,1.0478|0.4236,0.3849,1.0348] units=mi
new object=linecode.mtx602 nphases=3 basefreq=60 rmatrix=[0.7526|0.1580,0.7475|0.1560,0.1535,0.7436] xmatrix=[1.1814|0.4236,1.1983|0.5017,0.3849,1.2112] units=mi
new object=linecode.mtx603 nphases=2 basefreq=60 rmatrix=[1.3238|0.2066,1.3294] xmatrix=[1.3569|0.4591,1.3471] units=mi
new object=linecode.mtx604 nphases=2 basefreq=60 rmatrix=[1.3238|0.2066,1.3294] xmatrix=[1.3569|0.4591,1.3471] units=mi
new object=linecode.mtx605 nphases=1 basefreq=60 rmatrix=[1.3292] xmatrix=[1.3475] units=mi
new object=linecode.mtx606 nphases=3 units=mi rmatrix=[0.791721|0.318476,0.781649|0.28345,0.318476,0.791721] xmatrix=[0.438352|0.0276838,0.396697|-0.0184204,0.0276838,0.438352] cmatrix=[383.948|0,383.948|0,0,383.948]
new object=linecode.mtx607 nphases=1 basefreq=60 rmatrix=[1.3425] xmatrix=[0.5124] cmatrix=[236] units=mi
new object=loadshape.solar_634_shape npts=8760 interval=1 useactual=yes mult=[0.0,0.0,0.0,0.0,0.0,0.0,0.0,0.0,73.552,171.226,235.819,271.368,285.341,274.78,243.365,188.96399999999997,102.371,6.838,0.0,0.0,0.0,0.0,0.0,0.0,0.0,0.0,0.0,0.0,0.0,0.0,0.0,0.0,27.172,90.996,156.02300000000002,192.518,223.30399999999997,262.663,159.704,173.463,88.051,3.115,0.0,0.0,0.0,0.0,0.0,0.0,0.0,0.0,0.0,0.0,0.0,0.0,0.0,0.0,34.488,151.146,214.834,252.85700000000003,268.214,258.554,129.747,145.96,71.018,2.828,0.0,0.0,0.0,0.0,0.0,0.0,0.0,0.0,0.0,0.0,0.0,0.0,0.0,0.0,51.276,151.279,218.96,189.294,154.367,101.018,236.709,109.75,59.678,2.292,0.0,0.0,0.0,0.0,0.0,0.0,0.0,0.0,0.0,0.0,0.0,0.0,0.0,0.0,33.509,113.85,143.896,189.611,183.795,152.139,154.649,118.04,57.136,4.598,0.0,0.0,0.0,0.0,0.0,0.0,0.0,0.0,0.0,0.0,0.0,0.0,0.0,0.0,27.598,36.369,96.889,58.681,123.415,131.089,108.59,58.378,39.674,6.913,0.0,0.0,0.0,0.0,0.0,0.0,0.0,0.0,0.0,0.0,0.0,0.0,0.0,0.0,80.273,187.632,262.876,306.949,322.547,312.58500000000004,278.983,219.633,124.964,12.96,0.0,0.0,0.0,0.0,0.0,0.0,0.0,0.0,0.0,0.0,0.0,0.0,0.0,0.0,22.338,132.319,180.239,193.716,125.166,127.439,140.853,85.388,56.827,2.947,0.0,0.0,0.0,0.0,0.0,0.0,0.0,0.0,0.0,0.0,0.0,0.0,0.0,0.0,1.968,3.929,13.908,52.226,68.086,48.624,20.793,10.396,23.77,0.484,0.0,0.0,0.0,0.0,0.0,0.0,0.0,0.0,0.0,0.0,0.0,0.0,0.0,0.0,1.321,34.616,38.104,39.248,45.112,71.634,106.108,78.904,30.066,1.275,0.0,0.0,0.0,0.0,0.0,0.0,0.0,0.0,0.0,0.0,0.0,0.0,0.0,0.0,71.476,175.789,249.065,292.832,309.589,301.2,268.918,213.44,123.365,15.008,0.0,0.0,0.0,0.0,0.0,0.0,0.0,0.0,0.0,0.0,0.0,0.0,0.0,0.0,74.325,176.844,247.083,289.53000000000003,268.43,253.348,266.854,210.409,122.222,16.548,0.0,0.0,0.0,0.0,0.0,0.0,0.0,0.0,0.0,0.0,0.0,0.0,0.0,0.0,31.984,104.046,197.153,208.179,227.704,248.901,210.836,171.438,110.632,15.515,0.0,0.0,0.0,0.0,0.0,0.0,0.0,0.0,0.0,0.0,0.0,0.0,0.0,0.0,33.175,136.165,142.215,270.514,289.60900000000004,283.51,253.637,199.053,108.837,16.278,0.0,0.0,0.0,0.0,0.0,0.0,0.0,0.0,0.0,0.0,0.0,0.0,0.0,0.0,38.514,97.429,159.375,172.015,186.933,179.859,144.339,93.007,85.004,14.483,0.0,0.0,0.0,0.0,0.0,0.0,0.0,0.0,0.0,0.0,0.0,0.0,0.0,0.0,29.653,140.62900000000002,244.435,285.244,302.095,295.104,264.372,156.661,125.988,23.581,0.0,0.0,0.0,0.0,0.0,0.0,0.0,0.0,0.0,0.0,0.0,0.0,0.0,0.0,3.91,92.793,86.977,89.081,129.701,209.03,105.725,77.065,10.039,0.158,0.0,0.0,0.0,0.0,0.0,0.0,0.0,0.0,0.0,0.0,0.0,0.0,0.0,0.0,50.642,56.262,29.755,36.819,292.978,286.399,141.528,203.293,119.891,23.854,0.0,0.0,0.0,0.0,0.0,0.0,0.0,0.0,0.0,0.0,0.0,0.0,0.0,0.0,0.0,25.88,97.442,258.851,280.26099999999997,105.341,69.36,80.512,30.133,24.89,0.0,0.0,0.0,0.0,0.0,0.0,0.0,0.0,0.0,0.0,0.0,0.0,0.0,0.0,78.672,186.106,257.695,298.756,313.68100000000004,306.836,278.62600000000003,224.468,135.672,30.483,0.0,0.0,0.0,0.0,0.0,0.0,0.0,0.0,0.0,0.0,0.0,0.0,0.0,0.0,23.001,61.543,161.02,284.43600000000004,304.304,300.664,272.879,218.996,134.216,31.162,0.0,0.0,0.0,0.0,0.0,0.0,0.0,0.0,0.0,0.0,0.0,0.0,0.0,0.0,76.694,178.464,249.933,295.379,314.464,307.81,277.303,221.355,134.116,31.614,0.0,0.0,0.0,0.0,0.0,0.0,0.0,0.0,0.0,0.0,0.0,0.0,0.0,0.0,75.832,180.797,256.653,303.65,323.337,316.435,286.142,230.6,143.587,36.186,0.0,0.0,0.0,0.0,0.0,0.0,0.0,0.0,0.0,0.0,0.0,0.0,0.0,0.0,20.76,71.386,238.132,197.639,299.124,247.114,260.722,179.768,111.896,23.964,0.0,0.0,0.0,0.0,0.0,0.0,0.0,0.0,0.0,0.0,0.0,0.0,0.0,0.0,21.554,127.964,139.044,210.612,300.953,297.749,223.579,209.14,121.788,27.64,0.0,0.0,0.0,0.0,0.0,0.0,0.0,0.0,0.0,0.0,0.0,0.0,0.0,0.0,42.933,85.699,137.038,105.681,56.125,16.764,48.557,93.058,38.014,12.521,0.0,0.0,0.0,0.0,0.0,0.0,0.0,0.0,0.0,0.0,0.0,0.0,0.0,0.0,63.832,115.112,78.956,233.394,318.956,318.889,292.185,237.396,148.216,41.092,0.0,0.0,0.0,0.0,0.0,0.0,0.0,0.0,0.0,0.0,0.0,0.0,0.0,0.0,89.203,203.119,280.404,326.14599999999996,342.811,334.81600000000003,301.299,244.968,157.019,45.686,0.0,0.0,0.0,0.0,0.0,0.0,0.0,0.0,0.0,0.0,0.0,0.0,0.0,0.0,45.398,190.181,210.65,235.40499999999997,236.655,247.728,212.461,153.702,92.748,39.535,0.0,0.0,0.0,0.0,0.0,0.0,0.0,0.0,0.0,0.0,0.0,0.0,0.0,0.0,9.002,43.442,53.408,149.949,159.978,84.446,66.66,37.155,78.75,18.226,0.0,0.0,0.0,0.0,0.0,0.0,0.0,0.0,0.0,0.0,0.0,0.0,0.0,0.0,14.294,92.717,184.64,173.621,148.496,180.933,167.715,141.307,43.507,3.407,0.0,0.0,0.0,0.0,0.0,0.0,0.0,0.0,0.0,0.0,0.0,0.0,0.0,0.0,72.35,169.047,52.781,77.714,116.16,157.443,122.281,215.163,137.805,41.172,0.0,0.0,0.0,0.0,0.0,0.0,0.0,0.0,0.0,0.0,0.0,0.0,0.0,0.0,22.304,64.461,72.539,99.441,218.4,191.794,178.625,92.948,57.64,39.855,0.0,0.0,0.0,0.0,0.0,0.0,0.0,0.0,0.0,0.0,0.0,0.0,0.0,0.0,76.77399999999999,173.101,34.217,58.88,61.088,67.613,74.919,53.504,14.392,12.244,0.0,0.0,0.0,0.0,0.0,0.0,0.0,0.0,0.0,0.0,0.0,0.0,0.0,0.0,76.854,44.395,113.866,180.181,304.283,300.73099999999994,272.208,216.704,136.242,42.152,0.0,0.0,0.0,0.0,0.0,0.0,0.0,0.0,0.0,0.0,0.0,0.0,0.0,0.0,20.691,7.818,236.46500000000003,281.074,300.926,147.64,273.336,222.953,145.633,46.704,0.0,0.0,0.0,0.0,0.0,0.0,0.0,0.0,0.0,0.0,0.0,0.0,0.0,0.0,30.673,118.756,163.366,160.33,59.119,57.642,92.917,1.652,21.19,3.881,0.0,0.0,0.0,0.0,0.0,0.0,0.0,0.0,0.0,0.0,0.0,0.0,0.0,0.0,80.079,182.779,254.762,299.915,320.758,316.43600000000004,286.762,235.06,152.776,50.6,0.0,0.0,0.0,0.0,0.0,0.0,0.0,0.0,0.0,0.0,0.0,0.0,0.0,0.0,6.346,41.769,169.5,201.803,248.236,157.369,205.886,230.991,153.565,52.517,0.0,0.0,0.0,0.0,0.0,0.0,0.0,0.0,0.0,0.0,0.0,0.0,0.0,0.0,88.428,90.665,119.312,299.495,318.455,197.687,283.544,233.916,156.976,54.6,0.0,0.0,0.0,0.0,0.0,0.0,0.0,0.0,0.0,0.0,0.0,0.0,0.0,0.797,86.142,185.203,252.615,294.54200000000003,310.346,307.9189999999999,276.219,222.148,142.295,47.32099999999999,0.0,0.0,0.0,0.0,0.0,0.0,0.0,0.0,0.0,0.0,0.0,0.0,0.0,0.772,29.598,65.108,86.561,133.064,304.973,300.315,272.949,223.619,80.323,30.053,0.0,0.0,0.0,0.0,0.0,0.0,0.0,0.0,0.0,0.0,0.0,0.0,0.0,0.0,0.0,3.608,16.808,25.65,55.922,67.641,43.704,37.265,29.087,11.799,0.0,0.0,0.0,0.0,0.0,0.0,0.0,0.0,0.0,0.0,0.0,0.0,0.0,0.893,1.015,49.795,95.458,243.12,347.713,345.749,315.02,259.68,174.821,63.882,0.0,0.0,0.0,0.0,0.0,0.0,0.0,0.0,0.0,0.0,0.0,0.0,0.0,3.002,100.82,204.915,273.39599999999996,318.307,339.23199999999997,334.368,305.472,191.27,166.038,59.957,0.0,0.0,0.0,0.0,0.0,0.0,0.0,0.0,0.0,0.0,0.0,0.0,0.0,3.472,103.943,212.61,285.185,330.447,349.848,343.001,311.896,255.591,173.866,65.754,0.0,0.0,0.0,0.0,0.0,0.0,0.0,0.0,0.0,0.0,0.0,0.0,0.0,4.007,103.13,205.117,272.383,313.892,331.385,325.391,297.382,245.785,166.277,63.071,0.0,0.0,0.0,0.0,0.0,0.0,0.0,0.0,0.0,0.0,0.0,0.0,0.0,3.521,96.766,197.547,265.021,308.237,326.633,320.066,293.75800000000004,239.189,158.608,53.481,0.0,0.0,0.0,0.0,0.0,0.0,0.0,0.0,0.0,0.0,0.0,0.0,0.0,2.833,86.956,180.826,151.149,169.392,216.849,303.572,243.16,177.134,132.441,42.837,0.0,0.0,0.0,0.0,0.0,0.0,0.0,0.0,0.0,0.0,0.0,0.0,0.0,3.81,94.142,192.236,259.211,300.504,316.461,317.334,286.96,179.058,156.372,59.593,0.0,0.0,0.0,0.0,0.0,0.0,0.0,0.0,0.0,0.0,0.0,0.0,0.0,4.929,99.015,195.884,264.528,306.006,238.498,193.578,164.724,236.491,82.316,59.953,0.0,0.0,0.0,0.0,0.0,0.0,0.0,0.0,0.0,0.0,0.0,0.0,0.0,0.0,1.908,8.204,19.09,90.558,154.84300000000002,103.746,94.314,228.857,67.573,58.952,0.0,0.0,0.0,0.0,0.0,0.0,0.0,0.0,0.0,0.0,0.0,0.0,0.0,6.039,103.98,205.084,272.234,313.60200000000003,328.554,321.17,294.381,244.016,168.509,44.75,0.0,0.0,0.0,0.0,0.0,0.0,0.0,0.0,0.0,0.0,0.0,0.0,0.0,0.0,0.0,26.465,83.482,125.525,56.176,35.067,48.287,55.693,24.103,21.139,0.0,0.0,0.0,0.0,0.0,0.0,0.0,0.0,0.0,0.0,0.0,0.0,0.0,6.698,9.558,29.679,37.634,160.854,208.34,233.893,108.164,98.268,155.943,37.183,0.0,0.0,0.0,0.0,0.0,0.0,0.0,0.0,0.0,0.0,0.0,0.0,0.0,8.308,100.956,166.196,260.92,301.46900000000005,316.573,311.44899999999996,287.148,61.592,162.166,64.542,0.0,0.0,0.0,0.0,0.0,0.0,0.0,0.0,0.0,0.0,0.0,0.0,0.0,0.0,8.396,37.969,48.766,67.21,73.176,46.561,92.931,58.222,54.913,26.81,0.0,0.0,0.0,0.0,0.0,0.0,0.0,0.0,0.0,0.0,0.0,0.0,0.0,12.102,89.163,171.428,303.074,347.528,317.238,283.75600000000003,245.212,194.878,116.796,29.861,0.0,0.0,0.0,0.0,0.0,0.0,0.0,0.0,0.0,0.0,0.0,0.0,0.0,18.221,130.517,231.713,294.745,330.825,346.299,339.99,310.927,260.837,185.395,78.353,0.0,0.0,0.0,0.0,0.0,0.0,0.0,0.0,0.0,0.0,0.0,0.0,0.0,2.555,27.021,69.751,105.219,81.309,97.078,252.596,142.365,212.193,168.174,69.595,0.25,0.0,0.0,0.0,0.0,0.0,0.0,0.0,0.0,0.0,0.0,0.0,0.0,20.685,125.879,227.417,293.57199999999995,331.158,347.987,341.285,302.867,245.34,168.005,62.372,0.109,0.0,0.0,0.0,0.0,0.0,0.0,0.0,0.0,0.0,0.0,0.0,0.0,21.489,135.828,237.674,304.647,343.387,357.61400000000003,350.827,317.354,261.517,181.982,77.764,0.66,0.0,0.0,0.0,0.0,0.0,0.0,0.0,0.0,0.0,0.0,0.0,0.0,23.504,132.087,233.557,300.77299999999997,340.976,357.087,347.862,318.733,266.986,188.96399999999997,82.584,1.493,0.0,0.0,0.0,0.0,0.0,0.0,0.0,0.0,0.0,0.0,0.0,0.0,14.167,120.479,216.21,163.97,163.888,261.06100000000004,309.937,266.724,233.799,179.026,77.921,1.169,0.0,0.0,0.0,0.0,0.0,0.0,0.0,0.0,0.0,0.0,0.0,0.0,9.202,78.661,81.47,71.241,76.309,50.163,118.132,38.964,59.567,25.58,3.353,0.0,0.0,0.0,0.0,0.0,0.0,0.0,0.0,0.0,0.0,0.0,0.0,0.0,23.641,98.88,226.85,302.483,320.692,356.885,304.225,281.236,220.824,154.739,36.952,0.0,0.0,0.0,0.0,0.0,0.0,0.0,0.0,0.0,0.0,0.0,0.0,0.0,19.28,141.828,243.273,312.36400000000003,355.542,373.154,366.247,334.52599999999995,280.396,200.725,83.308,0.945,0.0,0.0,0.0,0.0,0.0,0.0,0.0,0.0,0.0,0.0,0.0,0.0,21.811,141.468,237.174,297.176,332.693,344.576,339.931,312.228,257.63,187.651,83.954,2.071,0.0,0.0,0.0,0.0,0.0,0.0,0.0,0.0,0.0,0.0,0.0,0.0,20.677,118.082,163.362,221.199,227.338,233.442,221.711,173.78,174.475,152.156,60.971,1.351,0.0,0.0,0.0,0.0,0.0,0.0,0.0,0.0,0.0,0.0,0.0,0.0,16.776,69.172,122.293,274.156,260.049,216.871,163.449,172.868,120.32,79.813,38.145,0.0,0.0,0.0,0.0,0.0,0.0,0.0,0.0,0.0,0.0,0.0,0.0,0.0,10.684,92.218,191.16,171.58499999999998,358.624,368.771,373.3,340.696,284.666,201.339,90.324,2.971,0.0,0.0,0.0,0.0,0.0,0.0,0.0,0.0,0.0,0.0,0.0,0.0,29.18,151.999,249.617,313.468,348.895,362.807,354.83500000000004,317.384,268.353,192.832,87.954,2.943,0.0,0.0,0.0,0.0,0.0,0.0,0.0,0.0,0.0,0.0,0.0,0.0,40.299,154.585,253.284,318.31600000000003,356.846,371.159,363.474,330.214,273.228,193.835,88.495,2.941,0.0,0.0,0.0,0.0,0.0,0.0,0.0,0.0,0.0,0.0,0.0,0.0,36.431,155.735,248.404,309.17,348.149,364.534,360.668,332.685,279.072,201.912,93.883,3.486,0.0,0.0,0.0,0.0,0.0,0.0,0.0,0.0,0.0,0.0,0.0,0.0,36.656,145.894,233.582,291.062,325.07300000000004,340.224,334.13599999999997,273.826,96.406,86.177,20.77,0.537,0.0,0.0,0.0,0.0,0.0,0.0,0.0,0.0,0.0,0.0,0.0,0.0,6.67,80.27,121.962,98.308,157.121,176.267,254.611,301.518,196.868,156.62,75.6,2.829,0.0,0.0,0.0,0.0,0.0,0.0,0.0,0.0,0.0,0.0,0.0,0.0,3.982,19.566,44.145,205.777,217.532,214.468,207.646,199.597,192.6,143.696,4.394,0.0,0.0,0.0,0.0,0.0,0.0,0.0,0.0,0.0,0.0,0.0,0.0,0.0,38.342,46.18,32.82,81.743,163.75,23.778,22.056,82.075,38.986,101.523,48.304,3.638,0.0,0.0,0.0,0.0,0.0,0.0,0.0,0.0,0.0,0.0,0.0,0.0,37.15,69.115,86.812,170.387,255.99999999999997,285.825,286.501,291.255,263.913,197.03,91.82,3.906,0.0,0.0,0.0,0.0,0.0,0.0,0.0,0.0,0.0,0.0,0.0,0.0,49.097,159.97,255.846,322.70799999999997,365.542,382.675,375.219,342.976,286.06399999999996,206.656,96.852,4.909999999999999,0.0,0.0,0.0,0.0,0.0,0.0,0.0,0.0,0.0,0.0,0.0,0.0,53.522,170.125,265.17900000000003,329.363,367.847,381.043,371.57,337.914,282.30600000000004,204.231,96.452,4.707,0.0,0.0,0.0,0.0,0.0,0.0,0.0,0.0,0.0,0.0,0.0,0.0,51.045,156.691,244.348,303.923,335.91,346.02299999999997,337.36400000000003,295.347,259.74,155.957,73.565,4.117,0.0,0.0,0.0,0.0,0.0,0.0,0.0,0.0,0.0,0.0,0.0,0.0,30.141,104.614,233.669,274.38,338.07500000000005,351.028,340.727,310.073,261.79,191.908,91.457,4.668,0.0,0.0,0.0,0.0,0.0,0.0,0.0,0.0,0.0,0.0,0.0,0.0,30.826,87.393,97.436,134.649,159.768,160.322,83.151,120.773,87.519,36.718,66.215,4.205,0.0,0.0,0.0,0.0,0.0,0.0,0.0,0.0,0.0,0.0,0.0,0.0,18.669,9.987,55.914,66.962,93.617,149.815,177.768,143.684,91.575,63.077,19.247,0.0,0.0,0.0,0.0,0.0,0.0,0.0,0.0,0.0,0.0,0.0,0.0,0.0,42.397,55.936,188.699,297.473,330.301,160.926,145.715,144.748,130.677,87.836,12.657,5.263,0.0,0.0,0.0,0.0,0.0,0.0,0.0,0.0,0.0,0.0,0.0,0.0,54.843,162.435,246.713,302.34799999999996,335.922,349.032,339.471,311.363,260.535,189.793,92.661,7.383,0.0,0.0,0.0,0.0,0.0,0.0,0.0,0.0,0.0,0.0,0.0,0.0,23.54,157.093,244.48,245.889,305.866,265.759,344.588,139.431,205.006,97.844,55.653,7.87,0.0,0.0,0.0,0.0,0.0,0.0,0.0,0.0,0.0,0.0,0.0,0.0,1.851,7.803,14.837,109.589,45.852,26.799,192.808,45.31,56.31400000000001,44.022,34.775,4.353,0.0,0.0,0.0,0.0,0.0,0.0,0.0,0.0,0.0,0.0,0.0,0.0,31.835,103.379,207.693,273.293,351.26599999999996,366.365,355.193,325.147,272.704,199.456,98.656,9.505,0.0,0.0,0.0,0.0,0.0,0.0,0.0,0.0,0.0,0.0,0.0,0.0,3.291,3.266,45.733,45.081,110.402,77.105,156.222,66.237,52.034,43.812,21.483,0.579,0.0,0.0,0.0,0.0,0.0,0.0,0.0,0.0,0.0,0.0,0.0,0.0,58.209,88.188,239.542,300.413,340.84,358.551,230.134,222.916,274.925,164.273,98.964,9.449,0.0,0.0,0.0,0.0,0.0,0.0,0.0,0.0,0.0,0.0,0.0,0.0,71.765,185.397,272.955,334.693,368.637,377.541,365.778,332.81100000000004,278.722,204.077,101.873,9.891,0.0,0.0,0.0,0.0,0.0,0.0,0.0,0.0,0.0,0.0,0.0,0.287,70.597,177.688,259.45,316.796,350.31800000000004,360.248,352.777,320.255,266.457,194.165,96.403,10.045,0.0,0.0,0.0,0.0,0.0,0.0,0.0,0.0,0.0,0.0,0.0,0.056,67.509,170.213,255.025,317.707,354.899,370.033,361.927,329.882,276.79200000000003,201.148,100.182,11.027,0.0,0.0,0.0,0.0,0.0,0.0,0.0,0.0,0.0,0.0,0.0,0.744,69.22999999999999,131.184,223.979,258.642,342.08500000000004,282.901,278.616,259.112,198.278,141.403,71.9,9.414,0.0,0.0,0.0,0.0,0.0,0.0,0.0,0.0,0.0,0.0,0.0,0.717,69.404,172.995,255.223,311.071,345.408,360.028,354.46799999999996,325.053,177.42,198.692,98.745,11.47,0.0,0.0,0.0,0.0,0.0,0.0,0.0,0.0,0.0,0.0,0.0,0.983,70.25399999999999,170.642,249.791,309.052,346.619,365.929,365.345,336.82,284.664,210.024,105.651,12.445,0.0,0.0,0.0,0.0,0.0,0.0,0.0,0.0,0.0,0.0,0.0,1.227,80.212,189.412,272.243,331.05899999999997,366.161,378.385,366.305,332.964,278.252,201.552,101.288,12.775,0.0,0.0,0.0,0.0,0.0,0.0,0.0,0.0,0.0,0.0,0.0,1.2299999999999998,53.453,121.434,202.419,323.227,357.69599999999997,367.917,356.898,324.428,274.427,201.123,102.75,13.159,0.0,0.0,0.0,0.0,0.0,0.0,0.0,0.0,0.0,0.0,0.0,1.831,74.894,175.072,253.249,308.695,339.10299999999995,346.91200000000003,336.798,263.584,254.527,184.671,94.057,13.556,0.0,0.0,0.0,0.0,0.0,0.0,0.0,0.0,0.0,0.0,0.0,1.673,24.592,120.947,79.985,189.396,242.825,242.418,292.773,123.561,74.547,123.712,49.175,12.831,0.0,0.0,0.0,0.0,0.0,0.0,0.0,0.0,0.0,0.0,0.0,2.255,73.64,169.334,157.963,205.659,230.645,144.671,162.549,87.066,64.359,14.818,11.255,0.28,0.0,0.0,0.0,0.0,0.0,0.0,0.0,0.0,0.0,0.0,0.0,2.402,11.824,14.409,42.615,85.371,85.327,96.79,133.791,55.076,67.223,43.861,19.632,2.053,0.0,0.0,0.0,0.0,0.0,0.0,0.0,0.0,0.0,0.0,0.0,3.474,12.289,38.573,75.803,104.582,91.017,92.175,147.485,157.788,168.127,80.627,19.763,15.354,0.0,0.0,0.0,0.0,0.0,0.0,0.0,0.0,0.0,0.0,0.0,4.214,51.944,77.676,108.043,111.256,169.956,205.798,216.236,250.284,260.026,186.418,94.059,15.94,0.0,0.0,0.0,0.0,0.0,0.0,0.0,0.0,0.0,0.0,0.0,5.852,83.974,185.856,264.533,320.99199999999996,355.77700000000004,366.98799999999994,359.778,329.766,277.22,203.546,105.073,15.9,0.0,0.0,0.0,0.0,0.0,0.0,0.0,0.0,0.0,0.0,0.0,6.468,91.862,197.296,274.603,326.95799999999997,356.064,363.994,354.38800000000003,321.54699999999997,267.081,193.705,100.175,15.945,0.0,0.0,0.0,0.0,0.0,0.0,0.0,0.0,0.0,0.0,0.0,7.065,91.53,194.174,267.505,321.233,349.776,354.96799999999996,340.673,313.82500000000005,267.288,197.344,103.354,16.541,0.0,0.0,0.0,0.0,0.0,0.0,0.0,0.0,0.0,0.0,0.0,8.301,85.918,181.312,253.007,267.321,334.198,293.24899999999997,333.82500000000005,255.64,166.774,188.413,96.331,17.337,0.0,0.0,0.0,0.0,0.0,0.0,0.0,0.0,0.0,0.0,0.0,6.295,49.827,135.12,132.569,163.733,228.971,352.58099999999996,339.594,172.078,143.61,126.695,53.778,12.038,0.0,0.0,0.0,0.0,0.0,0.0,0.0,0.0,0.0,0.0,0.0,9.878,59.643,177.233,219.554,263.09000000000003,43.936,77.455,88.154,21.095,81.888,41.481,54.837,17.006,0.0,0.0,0.0,0.0,0.0,0.0,0.0,0.0,0.0,0.0,0.0,9.681,88.644,72.25,82.608,313.874,346.941,358.432,174.244,321.284,270.542,199.321,104.656,17.196,0.0,0.0,0.0,0.0,0.0,0.0,0.0,0.0,0.0,0.0,0.0,10.342,93.298,191.737,261.996,312.90600000000006,342.251,351.32500000000005,342.841,313.952,265.508,195.344,102.453,17.898,0.0,0.0,0.0,0.0,0.0,0.0,0.0,0.0,0.0,0.0,0.0,8.103,51.841,126.321,249.971,258.06,269.545,341.935,294.28700000000003,302.751,255.183,187.469,98.697,18.415,0.0,0.0,0.0,0.0,0.0,0.0,0.0,0.0,0.0,0.0,0.0,11.835,89.154,182.124,201.523,228.891,327.351,337.706,329.377,301.668,255.68,187.299,99.518,18.86,0.0,0.0,0.0,0.0,0.0,0.0,0.0,0.0,0.0,0.0,0.0,12.511,90.025,182.848,254.057,305.226,334.252,346.096,337.132,306.395,207.257,178.813,89.275,18.378,0.0,0.0,0.0,0.0,0.0,0.0,0.0,0.0,0.0,0.0,0.0,13.447,86.069,140.068,198.281,231.659,243.811,217.789,76.761,35.995,16.147,104.489,37.374,8.149,0.0,0.0,0.0,0.0,0.0,0.0,0.0,0.0,0.0,0.0,0.0,13.752999999999998,88.594,178.787,246.945,294.58,257.518,323.275,260.152,186.027,248.076,183.881,98.27,19.538,0.0,0.0,0.0,0.0,0.0,0.0,0.0,0.0,0.0,0.0,0.0,12.895,74.24,156.817,225.813,246.729,253.113,287.036,327.50800000000004,297.748,220.623,166.759,71.762,17.048,0.0,0.0,0.0,0.0,0.0,0.0,0.0,0.0,0.0,0.0,0.0,14.784,87.08,151.61,177.349,259.03,300.59200000000004,341.623,332.889,305.259,256.437,176.88,102.335,21.035,0.0,0.0,0.0,0.0,0.0,0.0,0.0,0.0,0.0,0.0,0.0,15.603,85.205,121.732,216.233,247.753,232.573,267.323,328.772,249.788,255.055,189.936,103.35,21.214,0.0,0.0,0.0,0.0,0.0,0.0,0.0,0.0,0.0,0.0,0.0,15.995,93.146,101.948,251.587,184.619,231.468,204.18,194.906,10.377,41.883,2.059,101.926,21.212,0.0,0.0,0.0,0.0,0.0,0.0,0.0,0.0,0.0,0.0,0.0,17.539,36.555,140.834,198.762,137.045,339.165,350.891,346.038,319.48400000000004,272.855,104.974,111.373,23.142,0.0,0.0,0.0,0.0,0.0,0.0,0.0,0.0,0.0,0.0,0.0,18.115,106.03,207.554,285.514,341.577,374.439,385.554,373.618,341.724,287.491,214.689,116.508,23.388,0.0,0.0,0.0,0.0,0.0,0.0,0.0,0.0,0.0,0.0,0.0,18.749,111.639,212.249,284.433,336.685,364.218,372.552,365.313,330.113,277.563,204.02299999999997,110.056,24.655,0.0,0.0,0.0,0.0,0.0,0.0,0.0,0.0,0.0,0.0,0.0,20.51,105.096,200.204,273.922,328.767,359.572,367.31,357.59299999999996,324.38199999999995,274.546,203.299,111.043,24.072,0.0,0.0,0.0,0.0,0.0,0.0,0.0,0.0,0.0,0.0,0.0,19.198,104.733,196.546,262.759,306.711,331.193,343.225,338.76099999999997,313.723,268.667,201.323,111.492,25.029,0.0,0.0,0.0,0.0,0.0,0.0,0.0,0.0,0.0,0.0,0.0,20.255,103.683,194.026,263.305,314.46,343.0,352.717,342.965,315.885,266.2,199.268,110.594,25.38,0.0,0.0,0.0,0.0,0.0,0.0,0.0,0.0,0.0,0.0,0.0,18.2,76.34,22.924,156.362,170.284,136.449,276.14500000000004,245.812,114.181,165.91,105.036,59.533,17.794,0.0,0.0,0.0,0.0,0.0,0.0,0.0,0.0,0.0,0.0,0.0,20.318,94.786,189.433,254.836,301.17900000000003,326.029,333.095,324.62,297.22400000000005,251.374,187.18,103.529,25.561,0.0,0.0,0.0,0.0,0.0,0.0,0.0,0.0,0.0,0.0,0.0,21.941,99.301,185.311,250.813,300.887,328.743,196.114,329.104,302.683,255.956,190.103,105.118,25.184,0.0,0.0,0.0,0.0,0.0,0.0,0.0,0.0,0.0,0.0,0.0,20.908,97.727,184.651,251.279,300.16499999999996,234.541,207.732,223.853,100.507,38.465,152.634,42.665,26.223,0.0,0.0,0.0,0.0,0.0,0.0,0.0,0.0,0.0,0.0,0.0,22.038,109.464,203.942,274.09000000000003,323.343,352.142,360.017,349.906,319.687,270.076,201.657,112.501,26.689,0.0,0.0,0.0,0.0,0.0,0.0,0.0,0.0,0.0,0.0,0.0,18.767,69.943,148.522,264.749,313.053,339.457,347.904,339.265,311.232,264.887,198.763,111.193,26.614,0.0,0.0,0.0,0.0,0.0,0.0,0.0,0.0,0.0,0.0,0.0,21.152,85.988,197.873,265.501,271.05,335.001,341.37600000000003,330.52700000000004,267.981,188.49,134.514,88.201,25.014,0.0,0.0,0.0,0.0,0.0,0.0,0.0,0.0,0.0,0.0,0.0,5.692,23.228,34.296,42.374,48.189,134.515,204.389,172.978,119.249,73.014,18.652,2.867,0.0,0.0,0.0,0.0,0.0,0.0,0.0,0.0,0.0,0.0,0.0,0.0,20.976,80.257,139.655,187.098,251.673,248.64,143.637,169.91,164.819,35.948,142.306,106.369,28.05,0.0,0.0,0.0,0.0,0.0,0.0,0.0,0.0,0.0,0.0,0.0,22.815,101.515,159.409,105.124,143.95,234.054,112.462,103.241,301.71500000000003,255.931,191.528,108.63,27.889,0.0,0.0,0.0,0.0,0.0,0.0,0.0,0.0,0.0,0.0,0.0,0.0,0.0,1.763,29.598,74.843,121.67,168.778,220.52799999999996,63.017,20.611,14.139,16.708,4.665,0.0,0.0,0.0,0.0,0.0,0.0,0.0,0.0,0.0,0.0,0.0,23.213,58.981,138.48,259.873,307.103,334.411,274.53200000000004,217.766,215.594,232.692,197.16,111.699,28.503,0.0,0.0,0.0,0.0,0.0,0.0,0.0,0.0,0.0,0.0,0.0,24.57,108.905,199.123,269.158,318.947,349.151,360.405,349.52899999999994,318.602,241.673,203.112,92.201,27.783,0.0,0.0,0.0,0.0,0.0,0.0,0.0,0.0,0.0,0.0,0.0,25.622,111.182,199.42,263.663,308.71500000000003,334.793,344.76500000000004,338.195,314.115,268.016,202.529,116.715,30.878,0.0,0.0,0.0,0.0,0.0,0.0,0.0,0.0,0.0,0.0,0.0,25.064,108.983,196.21,260.853,304.942,233.167,339.90999999999997,326.85,301.03299999999996,256.419,193.423,111.691,30.834,0.0,0.0,0.0,0.0,0.0,0.0,0.0,0.0,0.0,0.0,0.0,25.167,104.242,190.159,257.248,305.37699999999995,331.827,334.567,160.982,290.861,166.691,168.318,109.35,31.495,0.0,0.0,0.0,0.0,0.0,0.0,0.0,0.0,0.0,0.0,0.0,25.496,103.144,187.501,250.871,295.302,285.057,331.548,323.588,237.035,206.765,191.256,111.104,31.272,0.0,0.0,0.0,0.0,0.0,0.0,0.0,0.0,0.0,0.0,0.0,24.767,109.697,200.599,206.934,316.956,264.192,239.876,342.995,219.615,265.26,153.8,115.948,31.674,0.0,0.0,0.0,0.0,0.0,0.0,0.0,0.0,0.0,0.0,0.0,25.044,106.895,193.191,257.015,303.961,210.045,272.39099999999996,327.555,302.635,257.994,194.436,112.279,32.183,0.0,0.0,0.0,0.0,0.0,0.0,0.0,0.0,0.0,0.0,0.0,24.883,103.392,188.208,253.119,301.74199999999996,330.656,341.18,266.219,300.751,254.384,153.229,111.546,32.292,0.0,0.0,0.0,0.0,0.0,0.0,0.0,0.0,0.0,0.0,0.0,25.795,102.311,184.39,247.955,236.794,319.632,92.949,221.63,122.493,182.327,161.211,98.33,30.972,0.0,0.0,0.0,0.0,0.0,0.0,0.0,0.0,0.0,0.0,0.0,25.349,104.232,187.426,249.981,293.79,317.424,324.396,317.144,209.648,167.071,187.891,0.31,0.0,0.0,0.0,0.0,0.0,0.0,0.0,0.0,0.0,0.0,0.0,0.0,26.11,101.536,181.641,242.503,286.551,310.402,317.14,286.078,235.784,213.702,182.432,91.532,24.696,0.0,0.0,0.0,0.0,0.0,0.0,0.0,0.0,0.0,0.0,0.0,25.578,102.803,184.809,247.037,286.36699999999996,311.872,190.915,263.68600000000004,286.145,243.224,183.891,108.2,34.267,0.0,0.0,0.0,0.0,0.0,0.0,0.0,0.0,0.0,0.0,0.0,26.436,77.489,177.864,236.107,276.623,301.414,310.669,265.03999999999996,237.501,161.046,112.752,75.81,25.4,0.0,0.0,0.0,0.0,0.0,0.0,0.0,0.0,0.0,0.0,0.0,13.29,71.232,107.738,174.988,264.077,273.721,289.416,261.356,264.877,215.838,117.668,99.353,23.803,0.0,0.0,0.0,0.0,0.0,0.0,0.0,0.0,0.0,0.0,0.0,13.728000000000002,33.973,113.078,169.36,208.742,215.091,265.38599999999997,275.71500000000003,262.4,211.421,153.341,110.199,15.515,0.0,0.0,0.0,0.0,0.0,0.0,0.0,0.0,0.0,0.0,0.0,0.0,47.985,99.324,63.389,109.315,168.554,154.579,317.163,274.12,205.165,79.56899999999999,60.423,21.626,0.0,0.0,0.0,0.0,0.0,0.0,0.0,0.0,0.0,0.0,0.0,23.015,101.742,126.748,244.73,172.524,171.02,166.303,232.067,229.302,51.555,53.001,82.812,35.282,0.0,0.0,0.0,0.0,0.0,0.0,0.0,0.0,0.0,0.0,0.0,8.6,33.853,49.445,134.63,239.853,175.646,260.32300000000004,90.629,94.055,65.154,36.754,33.556,5.745,0.0,0.0,0.0,0.0,0.0,0.0,0.0,0.0,0.0,0.0,0.0,26.712,102.437,90.302,161.194,246.062,261.577,270.062,260.528,301.024,256.919,135.878,114.824,37.416,0.0,0.0,0.0,0.0,0.0,0.0,0.0,0.0,0.0,0.0,0.0,25.664,109.25,196.544,194.213,307.34000000000003,168.685,261.801,335.077,306.228,258.966,194.674,35.038,33.489,0.0,0.0,0.0,0.0,0.0,0.0,0.0,0.0,0.0,0.0,0.0,25.403,104.128,188.649,252.33,299.832,257.663,334.058,325.79900000000004,299.733,193.46,145.847,114.632,31.914,0.0,0.0,0.0,0.0,0.0,0.0,0.0,0.0,0.0,0.0,0.0,24.688,103.91,188.056,251.38,297.90500000000003,324.569,241.262,326.432,301.041,257.843,197.483,118.157,36.74,0.0,0.0,0.0,0.0,0.0,0.0,0.0,0.0,0.0,0.0,0.0,24.279,100.14,181.333,243.743,285.896,310.512,245.347,312.33799999999997,288.135,249.116,191.082,115.323,37.295,0.0,0.0,0.0,0.0,0.0,0.0,0.0,0.0,0.0,0.0,0.0,25.15,100.641,183.361,246.466,293.22999999999996,321.564,247.431,172.704,299.685,255.716,197.648,90.405,27.677,0.0,0.0,0.0,0.0,0.0,0.0,0.0,0.0,0.0,0.0,0.0,25.572,103.681,189.595,253.708,300.66299999999995,330.174,342.781,335.637,310.305,267.927,206.819,125.218,39.972,0.0,0.0,0.0,0.0,0.0,0.0,0.0,0.0,0.0,0.0,0.0,25.103,107.629,193.118,256.154,298.703,291.04499999999996,159.567,330.69399999999996,261.782,262.211,202.063,118.401,34.644,0.0,0.0,0.0,0.0,0.0,0.0,0.0,0.0,0.0,0.0,0.0,19.273,43.664,121.563,201.532,290.3,276.34700000000004,258.057,199.735,143.433,199.233,122.72,85.386,19.042,0.0,0.0,0.0,0.0,0.0,0.0,0.0,0.0,0.0,0.0,0.0,0.0,27.04,30.19,69.517,106.501,127.503,155.98,229.434,194.756,194.105,129.167,109.406,31.845,0.0,0.0,0.0,0.0,0.0,0.0,0.0,0.0,0.0,0.0,0.0,1.396,26.535,62.617,191.004,219.858,202.859,120.937,273.5950000000001,302.84900000000005,205.74,186.838,115.293,40.196,0.0,0.0,0.0,0.0,0.0,0.0,0.0,0.0,0.0,0.0,0.0,23.681,98.466,180.628,246.939,298.17499999999995,245.954,261.686,294.751,280.586,236.583,154.04,78.075,30.365,0.0,0.0,0.0,0.0,0.0,0.0,0.0,0.0,0.0,0.0,0.0,22.078,29.752,95.628,121.185,239.471,167.983,187.689,233.74400000000003,253.072,161.646,135.423,102.029,37.007,0.0,0.0,0.0,0.0,0.0,0.0,0.0,0.0,0.0,0.0,0.0,22.909,45.232,185.238,139.163,138.655,226.336,216.371,208.265,128.263,208.833,28.961,115.153,34.16,0.0,0.0,0.0,0.0,0.0,0.0,0.0,0.0,0.0,0.0,0.0,14.467,18.862,63.596,147.258,143.586,268.462,267.331,326.12899999999996,274.92199999999997,240.123,166.169,109.864,40.125,0.151,0.0,0.0,0.0,0.0,0.0,0.0,0.0,0.0,0.0,0.0,19.254,86.992,146.351,105.998,146.523,129.871,139.533,111.035,100.737,155.401,166.133,122.822,39.109,0.372,0.0,0.0,0.0,0.0,0.0,0.0,0.0,0.0,0.0,0.0,0.0,33.907,73.752,135.839,123.341,181.112,214.251,199.445,209.586,182.364,90.962,78.055,0.718,0.0,0.0,0.0,0.0,0.0,0.0,0.0,0.0,0.0,0.0,0.0,20.594,98.748,183.894,21.821,90.286,253.885,279.948,274.429,300.597,259.447,200.249,122.783,40.425,0.36,0.0,0.0,0.0,0.0,0.0,0.0,0.0,0.0,0.0,0.0,21.263,97.737,181.969,245.36,287.592,314.76000000000005,324.76099999999997,320.291,300.935,261.255,188.025,105.089,37.775,0.14,0.0,0.0,0.0,0.0,0.0,0.0,0.0,0.0,0.0,0.0,18.291,97.879,182.711,246.04,292.152,319.533,330.67499999999995,319.20300000000003,296.835,256.424,185.305,103.228,27.611,0.0,0.0,0.0,0.0,0.0,0.0,0.0,0.0,0.0,0.0,0.0,20.16,87.667,137.96,202.946,262.873,276.499,214.612,224.467,123.294,231.576,161.44500000000002,89.511,34.457,0.0,0.0,0.0,0.0,0.0,0.0,0.0,0.0,0.0,0.0,0.0,1.017,84.869,126.351,176.092,280.032,307.544,318.711,313.034,292.347,204.437,136.228,4.892,9.3,0.0,0.0,0.0,0.0,0.0,0.0,0.0,0.0,0.0,0.0,0.0,3.893,67.196,141.618,211.159,254.095,253.858,279.788,274.677,217.111,187.143,162.327,102.703,37.865,0.0,0.0,0.0,0.0,0.0,0.0,0.0,0.0,0.0,0.0,0.0,21.09,90.009,178.71099999999998,240.417,280.267,306.86899999999997,277.159,190.214,234.836,218.629,150.896,99.622,25.944,0.0,0.0,0.0,0.0,0.0,0.0,0.0,0.0,0.0,0.0,0.0,21.996,90.85,170.869,192.258,131.849,260.985,276.746,226.981,263.157,224.972,144.764,45.395,33.856,0.0,0.0,0.0,0.0,0.0,0.0,0.0,0.0,0.0,0.0,0.0,20.511,91.959,174.03099999999998,237.154,283.969,311.079,210.184,313.892,294.823,255.733,198.102,121.965,41.053,0.0,0.0,0.0,0.0,0.0,0.0,0.0,0.0,0.0,0.0,0.0,17.702,93.453,177.446,241.676,286.159,313.40900000000005,269.821,225.987,95.207,211.231,176.216,81.645,32.603,0.0,0.0,0.0,0.0,0.0,0.0,0.0,0.0,0.0,0.0,0.0,16.053,91.9,95.45,188.571,279.44,236.888,190.791,52.886,202.789,227.232,195.874,104.397,39.238,0.14,0.0,0.0,0.0,0.0,0.0,0.0,0.0,0.0,0.0,0.0,19.252,91.698,174.193,238.963,202.314,231.519,281.778,241.747,145.822,19.114,90.921,90.221,36.749,0.0,0.0,0.0,0.0,0.0,0.0,0.0,0.0,0.0,0.0,0.0,8.535,65.385,120.906,205.774,247.059,238.272,168.256,274.551,235.206,194.945,108.17,93.994,26.061,0.0,0.0,0.0,0.0,0.0,0.0,0.0,0.0,0.0,0.0,0.0,16.085,70.583,120.117,157.999,140.377,312.221,252.694,323.736,261.606,211.001,153.515,103.98,39.416,0.0,0.0,0.0,0.0,0.0,0.0,0.0,0.0,0.0,0.0,0.0,16.754,81.303,163.598,177.317,290.815,320.57899999999995,331.149,290.152,264.17,227.739,164.923,122.718,41.317,0.0,0.0,0.0,0.0,0.0,0.0,0.0,0.0,0.0,0.0,0.0,16.686,90.771,176.317,144.012,87.358,316.856,59.002,275.713,248.894,213.868,143.905,36.942,23.713,0.0,0.0,0.0,0.0,0.0,0.0,0.0,0.0,0.0,0.0,0.0,17.691,88.522,171.251,236.247,197.366,188.098,205.08,315.60699999999997,291.344,193.261,58.681,79.753,32.223,0.0,0.0,0.0,0.0,0.0,0.0,0.0,0.0,0.0,0.0,0.0,17.772,88.394,170.712,235.041,278.045,306.349,316.771,310.367,289.111,249.381,193.07,86.901,1.7,0.0,0.0,0.0,0.0,0.0,0.0,0.0,0.0,0.0,0.0,0.0,18.167,56.77,102.768,154.441,215.021,184.806,254.021,319.774,296.83000000000004,93.71,20.883,63.822,31.945,0.0,0.0,0.0,0.0,0.0,0.0,0.0,0.0,0.0,0.0,0.0,18.055,40.842,79.213,148.094,140.125,234.871,261.663,270.776,272.552,254.339,194.531,96.293,37.503,0.0,0.0,0.0,0.0,0.0,0.0,0.0,0.0,0.0,0.0,0.0,17.325,41.605,174.529,186.316,248.394,279.824,269.453,285.43,304.281,191.693,152.222,37.901,29.941,0.0,0.0,0.0,0.0,0.0,0.0,0.0,0.0,0.0,0.0,0.0,16.261,88.499,175.114,243.979,287.052,317.376,329.02599999999995,325.177,298.894,255.785,127.995,29.557,11.063,0.0,0.0,0.0,0.0,0.0,0.0,0.0,0.0,0.0,0.0,0.0,14.142,74.294,161.564,160.463,201.656,314.671,326.21599999999995,317.891,293.225,252.461,196.627,120.025,37.966,0.0,0.0,0.0,0.0,0.0,0.0,0.0,0.0,0.0,0.0,0.0,15.562,87.182,171.861,236.348,283.927,312.97,144.275,309.007,181.816,212.841,162.54,113.299,39.453,0.0,0.0,0.0,0.0,0.0,0.0,0.0,0.0,0.0,0.0,0.0,15.785,81.944,160.273,223.627,268.245,296.81300000000005,232.792,301.04699999999997,247.224,237.679,180.39,109.772,21.158,0.0,0.0,0.0,0.0,0.0,0.0,0.0,0.0,0.0,0.0,0.0,14.01,79.531,156.128,219.405,267.099,294.713,229.734,136.926,275.955,236.778,180.737,105.348,0.0,0.0,0.0,0.0,0.0,0.0,0.0,0.0,0.0,0.0,0.0,0.0,15.148,81.755,90.708,118.384,278.427,309.077,319.755,314.187,290.043,247.821,188.419,97.326,30.019,0.0,0.0,0.0,0.0,0.0,0.0,0.0,0.0,0.0,0.0,0.0,10.319,53.511,56.598,160.921,226.592,101.845,55.952,123.544,225.153,91.532,7.351,42.789,16.442,0.0,0.0,0.0,0.0,0.0,0.0,0.0,0.0,0.0,0.0,0.0,14.781,83.214,168.778,234.581,281.768,311.216,321.959,313.041,222.123,249.654,190.543,114.181,33.398,0.0,0.0,0.0,0.0,0.0,0.0,0.0,0.0,0.0,0.0,0.0,14.445,81.268,162.319,225.324,113.362,228.963,277.87,272.142,203.269,220.122,172.958,84.184,22.511,0.0,0.0,0.0,0.0,0.0,0.0,0.0,0.0,0.0,0.0,0.0,13.638,79.93,71.262,39.356,160.177,271.632,252.102,255.956,226.512,190.936,31.804,38.487,21.563,0.0,0.0,0.0,0.0,0.0,0.0,0.0,0.0,0.0,0.0,0.0,12.984,80.548,164.086,230.794,280.37800000000004,310.739,266.492,208.499,245.2,258.998,198.855,112.777,30.113,0.0,0.0,0.0,0.0,0.0,0.0,0.0,0.0,0.0,0.0,0.0,13.132,79.357,163.553,230.122,64.66,226.712,324.201,125.512,213.884,176.908,180.396,94.715,27.618,0.0,0.0,0.0,0.0,0.0,0.0,0.0,0.0,0.0,0.0,0.0,12.826,79.57,165.056,233.483,157.379,59.484,104.397,102.934,174.789,190.887,179.528,110.432,33.936,0.0,0.0,0.0,0.0,0.0,0.0,0.0,0.0,0.0,0.0,0.0,9.02,23.954,58.553,201.513,100.77,218.711,223.796,243.179,36.609,45.66,23.331,44.799,18.033,0.0,0.0,0.0,0.0,0.0,0.0,0.0,0.0,0.0,0.0,0.0,11.694,68.949,77.446,19.23,222.196,169.04,282.147,288.482,208.882,201.904,162.508,106.413,32.683,0.0,0.0,0.0,0.0,0.0,0.0,0.0,0.0,0.0,0.0,0.0,5.996,38.961,136.389,124.479,193.902,244.578,100.463,90.016,115.432,206.789,194.746,113.831,34.011,0.0,0.0,0.0,0.0,0.0,0.0,0.0,0.0,0.0,0.0,0.0,10.732,78.74000000000001,166.007,232.381,278.732,239.664,318.528,217.008,163.47,193.744,188.369,110.942,29.616,0.0,0.0,0.0,0.0,0.0,0.0,0.0,0.0,0.0,0.0,0.0,10.72,78.935,166.415,234.721,283.74199999999996,236.441,234.264,145.468,99.01,118.772,162.001,109.761,32.299,0.0,0.0,0.0,0.0,0.0,0.0,0.0,0.0,0.0,0.0,0.0,10.833,76.926,162.094,230.411,282.18,311.33,221.52,315.11199999999997,200.675,222.615,132.726,61.707,20.58,0.0,0.0,0.0,0.0,0.0,0.0,0.0,0.0,0.0,0.0,0.0,10.453,76.706,163.064,230.861,280.154,260.802,269.906,255.389,229.857,248.436,188.345,108.966,31.269,0.0,0.0,0.0,0.0,0.0,0.0,0.0,0.0,0.0,0.0,0.0,8.641,63.726,148.269,221.547,234.199,259.03000000000003,211.615,307.09499999999997,284.581,243.515,181.481,98.308,24.238,0.0,0.0,0.0,0.0,0.0,0.0,0.0,0.0,0.0,0.0,0.0,5.056,56.236,115.311,221.145,274.286,305.333,317.78000000000003,262.678,270.525,226.522,143.352,93.939,0.0,0.0,0.0,0.0,0.0,0.0,0.0,0.0,0.0,0.0,0.0,0.0,7.874,54.092,123.854,177.57,216.875,231.331,205.068,63.372,108.286,64.573,117.059,103.228,29.274,0.0,0.0,0.0,0.0,0.0,0.0,0.0,0.0,0.0,0.0,0.0,9.156,78.107,167.913,237.555,287.234,248.717,246.26,184.182,298.355,257.188,195.383,112.568,27.784,0.0,0.0,0.0,0.0,0.0,0.0,0.0,0.0,0.0,0.0,0.0,8.106,78.318,169.332,239.007,194.049,200.04,334.293,328.213,302.95099999999996,259.293,197.204,113.118,26.932,0.0,0.0,0.0,0.0,0.0,0.0,0.0,0.0,0.0,0.0,0.0,7.651,76.188,162.884,229.533,277.854,306.194,317.65700000000004,275.415,224.589,195.999,115.464,89.04599999999999,26.982,0.0,0.0,0.0,0.0,0.0,0.0,0.0,0.0,0.0,0.0,0.0,7.524,77.411,168.614,237.073,285.986,315.447,324.378,317.877,293.82,251.524,191.318,109.215,26.024,0.0,0.0,0.0,0.0,0.0,0.0,0.0,0.0,0.0,0.0,0.0,6.837,77.217,168.90900000000002,237.846,287.15,316.978,270.52,130.991,104.175,254.319,176.958,93.119,20.927,0.0,0.0,0.0,0.0,0.0,0.0,0.0,0.0,0.0,0.0,0.0,6.583,76.254,167.456,237.097,286.75300000000004,137.376,297.209,319.976,59.615,58.044,141.439,76.472,22.446,0.0,0.0,0.0,0.0,0.0,0.0,0.0,0.0,0.0,0.0,0.0,6.082,76.274,168.001,240.022,291.97,323.403,268.552,201.82,203.892,196.23,76.177,108.836,23.855,0.0,0.0,0.0,0.0,0.0,0.0,0.0,0.0,0.0,0.0,0.0,6.006,46.831,60.434,114.509,156.04,200.458,160.212,107.853,76.635,18.519,89.484,0.714,8.815,0.0,0.0,0.0,0.0,0.0,0.0,0.0,0.0,0.0,0.0,0.0,1.861,14.029,78.196,85.552,134.73,147.975,259.334,172.514,241.462,99.774,48.219,18.73,5.196,0.0,0.0,0.0,0.0,0.0,0.0,0.0,0.0,0.0,0.0,0.0,4.213,40.218,60.118,122.586,219.905,253.769,112.232,210.606,40.0,245.618,182.753,65.681,21.645,0.0,0.0,0.0,0.0,0.0,0.0,0.0,0.0,0.0,0.0,0.0,3.19,47.352,96.499,212.193,277.913,163.469,257.026,192.183,171.264,241.73200000000003,176.665,84.749,16.807,0.0,0.0,0.0,0.0,0.0,0.0,0.0,0.0,0.0,0.0,0.0,4.208,73.234,163.911,234.52,285.657,314.671,323.693,100.517,243.399,244.426,182.363,81.445,18.532,0.0,0.0,0.0,0.0,0.0,0.0,0.0,0.0,0.0,0.0,0.0,3.855,74.172,168.105,241.634,290.94599999999997,233.147,249.872,151.12,28.011,51.687,99.705,93.185,18.655,0.0,0.0,0.0,0.0,0.0,0.0,0.0,0.0,0.0,0.0,0.0,0.885,27.721,92.251,102.497,48.15,23.444,43.236,63.539,83.969,84.247,95.281,90.101,17.712,0.0,0.0,0.0,0.0,0.0,0.0,0.0,0.0,0.0,0.0,0.0,3.032,32.04,91.017,145.255,183.198,218.72,199.417,91.969,164.26299999999998,147.735,105.358,51.778,10.035,0.0,0.0,0.0,0.0,0.0,0.0,0.0,0.0,0.0,0.0,0.0,0.349,39.253,95.569,100.379,54.168,132.452,130.837,186.963,195.358,231.521,145.199,72.845,8.941,0.0,0.0,0.0,0.0,0.0,0.0,0.0,0.0,0.0,0.0,0.0,2.627,45.144,109.185,144.614,198.347,205.544,271.526,257.533,237.823,209.834,142.302,59.471,10.688,0.0,0.0,0.0,0.0,0.0,0.0,0.0,0.0,0.0,0.0,0.0,2.842,74.181,170.55,244.985,297.124,328.87499999999994,279.168,266.328,298.55800000000005,212.332,186.235,85.348,14.465,0.0,0.0,0.0,0.0,0.0,0.0,0.0,0.0,0.0,0.0,0.0,2.226,72.656,166.976,239.851,158.984,318.939,237.673,264.209,293.376,178.959,21.442,56.934,13.996,0.0,0.0,0.0,0.0,0.0,0.0,0.0,0.0,0.0,0.0,0.0,2.063,70.59,126.609,229.264,279.77,150.491,83.519,191.46,290.001,243.916,179.084,33.833,13.429,0.0,0.0,0.0,0.0,0.0,0.0,0.0,0.0,0.0,0.0,0.0,1.669,70.68,162.165,234.662,287.699,319.903,330.433,324.628,295.60900000000004,247.084,178.17200000000005,89.016,12.379,0.0,0.0,0.0,0.0,0.0,0.0,0.0,0.0,0.0,0.0,0.0,0.0,0.365,108.256,179.134,266.13100000000003,296.78299999999996,308.568,296.968,230.443,156.954,91.715,41.157,8.776,0.0,0.0,0.0,0.0,0.0,0.0,0.0,0.0,0.0,0.0,0.0,0.804,64.022,146.614,216.614,150.074,229.314,206.059,300.241,274.754,229.391,167.066,82.593,10.639,0.0,0.0,0.0,0.0,0.0,0.0,0.0,0.0,0.0,0.0,0.0,1.62,68.091,161.58,235.844,288.182,318.729,219.667,206.939,238.97,240.589,164.686,0.0,3.86,0.0,0.0,0.0,0.0,0.0,0.0,0.0,0.0,0.0,0.0,0.0,1.463,68.168,161.647,233.724,285.043,315.70500000000004,326.351,217.452,286.767,91.66,173.06,84.049,8.839,0.0,0.0,0.0,0.0,0.0,0.0,0.0,0.0,0.0,0.0,0.0,1.239,67.017,138.997,149.423,204.429,153.376,235.077,181.229,240.247,163.746,116.385,28.994,7.548,0.0,0.0,0.0,0.0,0.0,0.0,0.0,0.0,0.0,0.0,0.0,1.044,57.295,111.054,174.357,202.737,244.066,278.025,250.675,249.195,175.325,143.001,74.607,6.353,0.0,0.0,0.0,0.0,0.0,0.0,0.0,0.0,0.0,0.0,0.0,0.0,0.376,6.438,14.013,47.898,61.111,56.245,45.199,30.547,38.264,64.804,55.011,4.542,0.0,0.0,0.0,0.0,0.0,0.0,0.0,0.0,0.0,0.0,0.0,1.353,67.416,162.762,114.901,123.012,323.24899999999997,257.074,234.142,130.723,193.954,101.086,47.478,2.645,0.0,0.0,0.0,0.0,0.0,0.0,0.0,0.0,0.0,0.0,0.0,1.179,68.003,53.734,73.881,109.499,61.074,84.486,99.618,125.348,241.056,170.344,77.83,3.593,0.0,0.0,0.0,0.0,0.0,0.0,0.0,0.0,0.0,0.0,0.0,1.172,69.024,165.017,239.873,214.101,326.074,337.058,262.356,297.317,244.738,171.589,77.486,3.033,0.0,0.0,0.0,0.0,0.0,0.0,0.0,0.0,0.0,0.0,0.0,0.683,67.114,161.862,237.297,287.401,319.946,332.80600000000004,321.407,291.454,160.18,166.831,74.886,2.58,0.0,0.0,0.0,0.0,0.0,0.0,0.0,0.0,0.0,0.0,0.0,0.0,15.668,109.351,166.901,245.389,212.005,275.564,272.369,286.86899999999997,236.201,164.577,72.786,1.981,0.0,0.0,0.0,0.0,0.0,0.0,0.0,0.0,0.0,0.0,0.0,0.451,67.031,164.263,241.848,292.605,325.794,337.754,328.137,296.15,243.307,170.436,75.082,1.802,0.0,0.0,0.0,0.0,0.0,0.0,0.0,0.0,0.0,0.0,0.0,0.467,67.714,164.915,237.818,288.3,317.542,328.09000000000003,318.699,289.567,240.283,165.803,72.355,1.42,0.0,0.0,0.0,0.0,0.0,0.0,0.0,0.0,0.0,0.0,0.0,0.453,67.366,54.186,88.364,197.106,306.117,310.816,297.514,269.242,221.028,152.781,65.619,0.836,0.0,0.0,0.0,0.0,0.0,0.0,0.0,0.0,0.0,0.0,0.0,0.0,16.331,32.017,106.369,234.384,208.104,61.21,26.585,147.9,14.504,13.317,45.648,0.803,0.0,0.0,0.0,0.0,0.0,0.0,0.0,0.0,0.0,0.0,0.0,0.0,44.023,155.931,196.474,279.051,310.15099999999995,320.60799999999995,260.07,281.419,199.797,157.09,61.833,0.803,0.0,0.0,0.0,0.0,0.0,0.0,0.0,0.0,0.0,0.0,0.0,0.0,62.91,142.914,199.803,222.415,273.146,265.641,287.66499999999996,255.039,204.496,79.925,62.336,0.0,0.0,0.0,0.0,0.0,0.0,0.0,0.0,0.0,0.0,0.0,0.0,0.0,66.032,167.603,247.298,302.429,334.923,344.878,330.9,298.54,244.345,167.247,68.055,0.211,0.0,0.0,0.0,0.0,0.0,0.0,0.0,0.0,0.0,0.0,0.0,0.0,70.256,174.147,252.297,304.785,335.738,344.869,332.81800000000004,301.651,246.506,169.301,68.284,0.0,0.0,0.0,0.0,0.0,0.0,0.0,0.0,0.0,0.0,0.0,0.0,0.0,47.644,158.535,208.203,240.623,315.466,323.419,307.275,238.143,157.379,86.685,17.646,0.0,0.0,0.0,0.0,0.0,0.0,0.0,0.0,0.0,0.0,0.0,0.0,0.0,60.401,154.111,194.505,224.004,265.898,187.603,216.909,175.291,152.345,134.676,52.226,0.0,0.0,0.0,0.0,0.0,0.0,0.0,0.0,0.0,0.0,0.0,0.0,0.0,45.921,106.2,173.69,227.768,314.897,263.65500000000003,158.389,149.17,17.591,65.714,24.134,0.0,0.0,0.0,0.0,0.0,0.0,0.0,0.0,0.0,0.0,0.0,0.0,0.0,0.021,43.346,109.162,161.098,202.051,126.169,94.235,66.261,51.167,83.292,17.236,0.0,0.0,0.0,0.0,0.0,0.0,0.0,0.0,0.0,0.0,0.0,0.0,0.0,15.526,72.003,133.52,107.789,219.32,328.76300000000003,224.117,198.878,232.551,155.308,57.415,0.0,0.0,0.0,0.0,0.0,0.0,0.0,0.0,0.0,0.0,0.0,0.0,0.0,59.098,84.822,197.343,221.548,221.964,237.159,167.158,134.525,161.319,122.914,33.919,0.0,0.0,0.0,0.0,0.0,0.0,0.0,0.0,0.0,0.0,0.0,0.0,0.0,18.299,49.597,105.564,123.33,133.15,187.893,164.369,94.312,92.547,18.402,12.748,0.0,0.0,0.0,0.0,0.0,0.0,0.0,0.0,0.0,0.0,0.0,0.0,0.0,60.152,112.258,188.548,252.632,177.418,220.338,144.68,81.264,108.706,98.384,47.999,0.0,0.0,0.0,0.0,0.0,0.0,0.0,0.0,0.0,0.0,0.0,0.0,0.0,57.296,151.17,222.839,272.87,301.42699999999996,240.493,300.42,239.77,191.629,65.575,46.129,0.0,0.0,0.0,0.0,0.0,0.0,0.0,0.0,0.0,0.0,0.0,0.0,0.0,55.639,148.592,222.564,275.30899999999997,305.846,216.959,306.317,273.29,132.138,140.698,47.635,0.0,0.0,0.0,0.0,0.0,0.0,0.0,0.0,0.0,0.0,0.0,0.0,0.0,64.839,148.822,254.887,307.882,339.192,347.806,332.354,296.547,240.043,155.843,51.998,0.0,0.0,0.0,0.0,0.0,0.0,0.0,0.0,0.0,0.0,0.0,0.0,0.0,52.875,142.806,252.909,237.085,252.307,344.456,287.962,271.919,140.636,46.481,42.994,0.0,0.0,0.0,0.0,0.0,0.0,0.0,0.0,0.0,0.0,0.0,0.0,0.0,59.733,159.621,236.715,287.342,315.91,322.32,306.977,272.198,217.897,135.139,41.461,0.0,0.0,0.0,0.0,0.0,0.0,0.0,0.0,0.0,0.0,0.0,0.0,0.0,53.295,144.527,214.372,261.541,288.125,296.979,282.915,251.704,198.485,118.405,34.692,0.0,0.0,0.0,0.0,0.0,0.0,0.0,0.0,0.0,0.0,0.0,0.0,0.0,24.201,110.159,161.652,239.77,256.97,272.233,266.09,260.969,206.726,128.487,38.909,0.0,0.0,0.0,0.0,0.0,0.0,0.0,0.0,0.0,0.0,0.0,0.0,0.0,57.708,158.694,236.649,289.528,320.629,327.782,312.191,276.899,220.435,137.826,40.358,0.0,0.0,0.0,0.0,0.0,0.0,0.0,0.0,0.0,0.0,0.0,0.0,0.0,57.032,156.876,233.03,282.75600000000003,310.592,316.295,300.26800000000003,266.708,212.396,132.51,37.94,0.0,0.0,0.0,0.0,0.0,0.0,0.0,0.0,0.0,0.0,0.0,0.0,0.0,54.483,151.128,224.997,274.24,301.78700000000003,307.608,291.329,256.985,200.581,116.23,30.943,0.0,0.0,0.0,0.0,0.0,0.0,0.0,0.0,0.0,0.0,0.0,0.0,0.0,51.367,146.756,225.696,284.048,315.307,322.99100000000004,310.813,277.335,221.578,137.476,37.739,0.0,0.0,0.0,0.0,0.0,0.0,0.0,0.0,0.0,0.0,0.0,0.0,0.0,57.63,161.04899999999998,240.892,294.52,325.64599999999996,335.493,320.73900000000003,284.45300000000003,225.252,137.567,36.383,0.0,0.0,0.0,0.0,0.0,0.0,0.0,0.0,0.0,0.0,0.0,0.0,0.0,57.061,62.354,104.669,133.349,238.013,141.102,311.21299999999997,274.228,134.49,130.251,33.091,0.0,0.0,0.0,0.0,0.0,0.0,0.0,0.0,0.0,0.0,0.0,0.0,0.0,55.188,156.163,233.024,284.162,232.107,150.561,202.971,79.904,198.355,56.282,27.329,0.0,0.0,0.0,0.0,0.0,0.0,0.0,0.0,0.0,0.0,0.0,0.0,0.0,9.181,29.513,120.5,240.474,229.928,243.111,195.306,117.148,207.471,122.706,28.929,0.0,0.0,0.0,0.0,0.0,0.0,0.0,0.0,0.0,0.0,0.0,0.0,0.0,53.907,158.085,179.269,288.383,266.531,324.77,238.18,236.953,217.192,130.736,31.182,0.0,0.0,0.0,0.0,0.0,0.0,0.0,0.0,0.0,0.0,0.0,0.0,0.0,16.612,111.009,110.943,111.314,232.569,55.32,209.949,158.103,142.702,54.15,14.063,0.0,0.0,0.0,0.0,0.0,0.0,0.0,0.0,0.0,0.0,0.0,0.0,0.0,56.854,130.873,246.915,301.334,330.014,335.90999999999997,319.418,279.791,220.11,131.314,29.696,0.0,0.0,0.0,0.0,0.0,0.0,0.0,0.0,0.0,0.0,0.0,0.0,0.0,53.998,131.333,238.824,253.859,231.987,281.419,261.777,208.071,148.908,111.569,12.68,0.0,0.0,0.0,0.0,0.0,0.0,0.0,0.0,0.0,0.0,0.0,0.0,0.0,11.954,43.754,143.539,112.255,43.117,116.469,66.688,71.465,111.154,33.837,7.798,0.0,0.0,0.0,0.0,0.0,0.0,0.0,0.0,0.0,0.0,0.0,0.0,0.0,26.464,108.749,119.079,55.174,81.356,72.599,88.089,54.922,22.128,27.848,3.536,0.0,0.0,0.0,0.0,0.0,0.0,0.0,0.0,0.0,0.0,0.0,0.0,0.0,13.78,63.602,64.676,96.668,93.667,221.105,170.201,118.914,169.78,92.92,14.872,0.0,0.0,0.0,0.0,0.0,0.0,0.0,0.0,0.0,0.0,0.0,0.0,0.0,43.882,72.367,209.571,257.384,287.564,295.996,283.399,248.452,116.625,105.625,18.035,0.0,0.0,0.0,0.0,0.0,0.0,0.0,0.0,0.0,0.0,0.0,0.0,0.0,29.227,115.569,216.308,269.089,297.062,304.092,289.089,250.91,191.769,105.848,17.483,0.0,0.0,0.0,0.0,0.0,0.0,0.0,0.0,0.0,0.0,0.0,0.0,0.0,42.158,137.156,105.372,132.197,201.171,291.657,181.992,237.65,180.902,98.45,15.138,0.0,0.0,0.0,0.0,0.0,0.0,0.0,0.0,0.0,0.0,0.0,0.0,0.0,39.796,134.386,213.408,167.502,178.719,231.275,215.979,209.192,132.391,99.886,14.21,0.0,0.0,0.0,0.0,0.0,0.0,0.0,0.0,0.0,0.0,0.0,0.0,0.0,0.102,104.428,145.783,297.36,332.793,343.81100000000004,328.601,289.9,223.997,125.304,18.349,0.0,0.0,0.0,0.0,0.0,0.0,0.0,0.0,0.0,0.0,0.0,0.0,0.0,48.658,155.991,242.371,299.11699999999996,330.805,337.453,318.578,276.646,211.393,115.491,14.996,0.0,0.0,0.0,0.0,0.0,0.0,0.0,0.0,0.0,0.0,0.0,0.0,0.0,46.767,153.08700000000002,235.804,212.699,318.736,324.124,306.4,264.554,203.324,110.845,13.021,0.0,0.0,0.0,0.0,0.0,0.0,0.0,0.0,0.0,0.0,0.0,0.0,0.0,0.0,32.711,62.892999999999994,62.255,135.849,99.381,50.068,76.042,51.997,1.145,0.0,0.0,0.0,0.0,0.0,0.0,0.0,0.0,0.0,0.0,0.0,0.0,0.0,0.0,27.911,32.338,112.321,158.658,181.402,153.715,71.256,17.921,42.382,17.937,0.0,0.0,0.0,0.0,0.0,0.0,0.0,0.0,0.0,0.0,0.0,0.0,0.0,0.0,41.371,145.706,156.213,213.474,324.281,331.336,313.08000000000004,272.58799999999997,207.801,111.067,8.976,0.0,0.0,0.0,0.0,0.0,0.0,0.0,0.0,0.0,0.0,0.0,0.0,0.0,43.199,150.46,234.643,288.246,316.67,321.266,301.75300000000004,262.585,200.237,108.843,8.202,0.0,0.0,0.0,0.0,0.0,0.0,0.0,0.0,0.0,0.0,0.0,0.0,0.0,41.614,147.041,229.801,282.78999999999996,312.579,317.233,301.093,262.79,201.178,107.279,7.812,0.0,0.0,0.0,0.0,0.0,0.0,0.0,0.0,0.0,0.0,0.0,0.0,0.0,36.333,135.459,215.742,264.692,288.81899999999996,196.7,279.965,245.459,186.877,98.363,6.232,0.0,0.0,0.0,0.0,0.0,0.0,0.0,0.0,0.0,0.0,0.0,0.0,0.0,12.703,38.736,97.673,157.383,137.504,135.145,58.027,78.228,3.941,32.885,0.571,0.0,0.0,0.0,0.0,0.0,0.0,0.0,0.0,0.0,0.0,0.0,0.0,0.0,35.672,22.478,53.11,169.657,303.54699999999997,311.677,296.759,258.0,195.663,101.47,5.996,0.0,0.0,0.0,0.0,0.0,0.0,0.0,0.0,0.0,0.0,0.0,0.0,0.0,37.94,146.626,234.315,291.014,322.332,328.229,309.995,268.051,202.854,104.311,5.925,0.0,0.0,0.0,0.0,0.0,0.0,0.0,0.0,0.0,0.0,0.0,0.0,0.0,34.065,136.835,222.495,222.34,241.991,311.14599999999996,249.371,246.533,134.276,61.451,1.541,0.0,0.0,0.0,0.0,0.0,0.0,0.0,0.0,0.0,0.0,0.0,0.0,0.0,26.902,123.466,210.061,272.573,300.983,308.054,290.361,249.345,183.996,90.626,3.618,0.0,0.0,0.0,0.0,0.0,0.0,0.0,0.0,0.0,0.0,0.0,0.0,0.0,3.099,48.559,129.868,255.806,285.558,290.827,273.335,235.342,174.134,85.995,2.889,0.0,0.0,0.0,0.0,0.0,0.0,0.0,0.0,0.0,0.0,0.0,0.0,0.0,4.411,20.093,161.618,187.572,280.168,148.527,131.473,52.793,35.984,35.937,2.007,0.0,0.0,0.0,0.0,0.0,0.0,0.0,0.0,0.0,0.0,0.0,0.0,0.0,32.396,140.622,231.299,289.094,319.342,325.756,306.06100000000004,262.341,196.319,98.044,3.79,0.0,0.0,0.0,0.0,0.0,0.0,0.0,0.0,0.0,0.0,0.0,0.0,0.0,26.307,124.533,209.956,227.566,293.147,295.126,277.702,236.158,175.092,36.247,2.235,0.0,0.0,0.0,0.0,0.0,0.0,0.0,0.0,0.0,0.0,0.0,0.0,0.0,25.011,121.781,205.928,207.508,216.874,201.793,279.923,239.772,130.899,88.608,2.538,0.0,0.0,0.0,0.0,0.0,0.0,0.0,0.0,0.0,0.0,0.0,0.0,0.0,25.456,124.008,208.796,260.696,285.919,290.55400000000003,275.485,237.507,175.95499999999998,86.082,1.99,0.0,0.0,0.0,0.0,0.0,0.0,0.0,0.0,0.0,0.0,0.0,0.0,0.0,15.071,93.845,179.034,218.596,233.089,204.337,227.314,166.977,120.057,26.42,0.0,0.0,0.0,0.0,0.0,0.0,0.0,0.0,0.0,0.0,0.0,0.0,0.0,0.0,23.629,87.155,174.89700000000002,245.418,332.744,340.327,321.373,275.831,206.125,101.753,3.103,0.0,0.0,0.0,0.0,0.0,0.0,0.0,0.0,0.0,0.0,0.0,0.0,0.0,22.545,126.786,216.617,245.879,302.767,278.09999999999997,288.57,246.901,167.447,1.175,0.0,0.0,0.0,0.0,0.0,0.0,0.0,0.0,0.0,0.0,0.0,0.0,0.0,0.0,5.158,13.637,29.708,41.199,41.893,49.918,26.937,44.16,25.423,22.603,0.0,0.0,0.0,0.0,0.0,0.0,0.0,0.0,0.0,0.0,0.0,0.0,0.0,0.0,15.998,108.849,106.993,247.365,188.945,281.563,105.55,100.335,30.639,27.032,0.0,0.0,0.0,0.0,0.0,0.0,0.0,0.0,0.0,0.0,0.0,0.0,0.0,0.0,13.53,103.695,102.625,76.674,175.296,205.199,217.659,183.854,29.096,12.926,0.0,0.0,0.0,0.0,0.0,0.0,0.0,0.0,0.0,0.0,0.0,0.0,0.0,0.0,0.533,8.907,24.044,28.281,73.203,58.339,76.171,42.933,109.193,19.069,0.0,0.0,0.0,0.0,0.0,0.0,0.0,0.0,0.0,0.0,0.0,0.0,0.0,0.0,14.668,121.071,213.411,269.131,300.874,307.948,290.144,248.94600000000003,183.567,44.723,0.0,0.0,0.0,0.0,0.0,0.0,0.0,0.0,0.0,0.0,0.0,0.0,0.0,0.0,2.639,60.782,124.645,119.918,147.957,115.94,154.726,72.576,47.946,9.316,0.0,0.0,0.0,0.0,0.0,0.0,0.0,0.0,0.0,0.0,0.0,0.0,0.0,0.0,6.267,42.417,91.688,240.264,273.597,281.83000000000004,265.091,225.408,70.809,45.259,0.0,0.0,0.0,0.0,0.0,0.0,0.0,0.0,0.0,0.0,0.0,0.0,0.0,0.0,7.475,17.457,62.505,107.609,265.673,269.939,253.934,216.088,62.298,15.33,0.0,0.0,0.0,0.0,0.0,0.0,0.0,0.0,0.0,0.0,0.0,0.0,0.0,0.0,6.971,95.499,178.15499999999997,231.869,55.725,165.258,148.033,152.317,158.505,21.653,0.0,0.0,0.0,0.0,0.0,0.0,0.0,0.0,0.0,0.0,0.0,0.0,0.0,0.0,8.528,108.238,203.201,264.51800000000003,298.961,308.065,292.62300000000005,251.11,185.02,79.361,0.0,0.0,0.0,0.0,0.0,0.0,0.0,0.0,0.0,0.0,0.0,0.0,0.0,0.0,0.0,28.25,71.765,76.392,98.134,81.379,137.91,59.591,76.984,14.471,0.0,0.0,0.0,0.0,0.0,0.0,0.0,0.0,0.0,0.0,0.0,0.0,0.0,0.0,0.0,2.287,1.903,8.533,163.177,62.353,103.516,56.118,20.713,19.341,0.0,0.0,0.0,0.0,0.0,0.0,0.0,0.0,0.0,0.0,0.0,0.0,0.0,0.0,5.315,1.325,24.115,41.408,56.241,52.8,111.223,264.887,194.757,91.899,0.0,0.0,0.0,0.0,0.0,0.0,0.0,0.0,0.0,0.0,0.0,0.0,0.0,0.0,8.437,116.539,215.761,275.197,307.584,316.201,299.372,257.85900000000004,146.777,27.693,0.0,0.0,0.0,0.0,0.0,0.0,0.0,0.0,0.0,0.0,0.0,0.0,0.0,0.0,6.677,107.394,202.027,261.132,294.693,302.73,285.916,246.901,181.738,85.904,0.0,0.0,0.0,0.0,0.0,0.0,0.0,0.0,0.0,0.0,0.0,0.0,0.0,0.0,4.215,96.951,130.099,249.947,281.072,289.394,274.18,233.556,168.585,76.914,0.0,0.0,0.0,0.0,0.0,0.0,0.0,0.0,0.0,0.0,0.0,0.0,0.0,0.0,0.0,20.29,105.098,158.819,218.178,213.854,200.652,154.767,87.628,61.257,0.0,0.0,0.0,0.0,0.0,0.0,0.0,0.0,0.0,0.0,0.0,0.0,0.0,0.0,0.0,19.570000000000004,177.112,239.406,273.09499999999997,282.313,268.89300000000003,81.454,168.47,77.541,0.0,0.0,0.0,0.0,0.0,0.0,0.0,0.0,0.0,0.0,0.0,0.0,0.0,0.0,3.139,90.641,178.633,236.598,269.182,277.221,202.39,147.328,163.052,74.547,0.0,0.0,0.0,0.0,0.0,0.0,0.0,0.0,0.0,0.0,0.0,0.0,0.0,0.0,1.635,36.96,67.538,121.066,188.765,203.923,197.457,160.215,127.783,50.95,0.0,0.0,0.0,0.0,0.0,0.0,0.0,0.0,0.0,0.0,0.0,0.0,0.0,0.0,1.091,77.65,111.433,191.883,254.61,201.51,215.363,152.56,114.989,31.474,0.0,0.0,0.0,0.0,0.0,0.0,0.0,0.0,0.0,0.0,0.0,0.0,0.0,0.0,1.587,82.803,169.567,229.134,117.009,106.734,181.262,214.695,152.489,68.044,0.0,0.0,0.0,0.0,0.0,0.0,0.0,0.0,0.0,0.0,0.0,0.0,0.0,0.0,1.139,80.478,165.337,12.08,73.401,155.455,251.045,71.147,3.989,0.0,0.0,0.0,0.0,0.0,0.0,0.0,0.0,0.0,0.0,0.0,0.0,0.0,0.0,0.0,0.0,80.564,168.62,226.998,260.62,271.116,258.079,220.814,160.348,74.272,0.0,0.0,0.0,0.0,0.0,0.0,0.0,0.0,0.0,0.0,0.0,0.0,0.0,0.0,0.0,81.267,168.349,226.525,260.89099999999996,271.024,256.133,120.257,43.813,23.769,0.0,0.0,0.0,0.0,0.0,0.0,0.0,0.0,0.0,0.0,0.0,0.0,0.0,0.0,0.0,29.836,75.455,156.96900000000002,259.595,272.26099999999997,178.75,159.932,122.418,75.594,0.0,0.0,0.0,0.0,0.0,0.0,0.0,0.0,0.0,0.0,0.0,0.0,0.0,0.0,0.0,85.683,177.98,95.107,178.533,165.457,149.015,229.879,169.309,79.738,0.0,0.0,0.0,0.0,0.0,0.0,0.0,0.0,0.0,0.0,0.0,0.0,0.0,0.0,0.0,87.262,186.166,254.37,294.93,308.695,295.79,258.315,191.913,94.108,0.0,0.0,0.0,0.0,0.0,0.0,0.0,0.0,0.0,0.0,0.0,0.0,0.0,0.0,0.0,90.224,186.144,249.738,233.84,210.199,205.609,240.787,176.466,84.227,0.0,0.0,0.0,0.0,0.0,0.0,0.0,0.0,0.0,0.0,0.0,0.0,0.0,0.0,0.0,29.675,80.633,157.043,135.037,18.944,47.05100000000001,23.437,25.592,21.601,0.0,0.0,0.0,0.0,0.0,0.0,0.0,0.0,0.0,0.0,0.0,0.0,0.0,0.0,0.0,3.483,17.302,55.657,79.39099999999999,35.52,48.636,77.551,56.541,31.342,0.0,0.0,0.0,0.0,0.0,0.0,0.0,0.0,0.0,0.0,0.0,0.0,0.0,0.0,0.0,86.93,185.204,249.66,286.356,297.912,285.925,249.582,186.675,92.613,0.0,0.0,0.0,0.0,0.0,0.0,0.0,0.0,0.0,0.0,0.0,0.0,0.0,0.0,0.0,86.887,182.7,245.535,281.207,293.873,282.646,247.274,185.827,94.331,0.0,0.0,0.0,0.0,0.0,0.0,0.0,0.0,0.0,0.0,0.0,0.0,0.0,0.0,0.0,80.335,180.93,249.458,288.37600000000003,299.821,288.041,250.059,186.423,92.29,0.0,0.0,0.0,0.0,0.0,0.0,0.0,0.0,0.0,0.0,0.0,0.0,0.0,0.0,0.0,85.908,183.472,248.006,283.474,294.53499999999997,281.462,245.725,185.742,93.715,0.0,0.0,0.0,0.0,0.0,0.0,0.0,0.0,0.0,0.0,0.0,0.0,0.0,0.0,0.0,72.454,161.382,224.568,259.245,270.56600000000003,257.255,161.829,164.653,80.016,1.081,0.0,0.0,0.0,0.0,0.0,0.0,0.0,0.0,0.0,0.0,0.0,0.0,0.0,0.0,64.698,154.941,218.569,256.15000000000003,268.775,256.893,222.81,60.403,78.178,1.004,0.0,0.0,0.0,0.0,0.0,0.0,0.0,0.0,0.0,0.0,0.0,0.0,0.0,0.0,62.760000000000005,43.57,44.136,32.161,80.895,75.614,95.188,63.103,79.14,1.143,0.0,0.0,0.0,0.0,0.0,0.0,0.0,0.0,0.0,0.0,0.0,0.0,0.0,0.0,33.064,59.801,59.101,58.651,62.87,50.741,43.027,46.075,13.791,0.0,0.0,0.0,0.0,0.0,0.0,0.0,0.0,0.0,0.0,0.0,0.0,0.0,0.0,0.0,85.161,190.11900000000003,260.055,300.15500000000003,314.579,303.344,267.1,202.83,105.558,4.88,0.0,0.0,0.0,0.0,0.0,0.0,0.0,0.0,0.0,0.0,0.0,0.0,0.0,0.0,41.729,135.678,187.734,239.69,258.339,280.265,242.716,180.417,39.15,0.0,0.0,0.0,0.0,0.0,0.0,0.0,0.0,0.0,0.0,0.0,0.0,0.0,0.0,0.0,6.293,3.65,74.425,70.66,136.504,40.824,67.408,83.994,33.282,0.0,0.0,0.0,0.0,0.0,0.0,0.0,0.0,0.0,0.0,0.0,0.0,0.0,0.0,0.0,1.279,35.278,107.275,92.583,124.662,144.932,56.811,43.863,4.659,0.0,0.0,0.0,0.0,0.0,0.0,0.0,0.0,0.0,0.0,0.0,0.0,0.0,0.0,0.0,10.397,48.219,33.984,81.665,68.752,66.699,89.576,52.366,0.0,0.0,0.0,0.0,0.0,0.0,0.0,0.0,0.0,0.0,0.0,0.0,0.0,0.0,0.0,0.0,20.729,83.165,118.427,156.818,275.906,268.2339999999999,237.123,181.295,95.534,4.953,0.0,0.0,0.0,0.0,0.0,0.0,0.0,0.0,0.0,0.0,0.0,0.0,0.0,0.0,34.704,127.737,230.655,221.557,108.933,113.789,118.161,31.889,35.154,0.264,0.0,0.0,0.0,0.0,0.0,0.0,0.0,0.0,0.0,0.0,0.0,0.0,0.0,0.0,1.599,18.494,13.931,36.232,67.443,59.48,80.502,36.244,46.099,0.964,0.0,0.0,0.0,0.0,0.0,0.0]
...